<additional>
	<e1Detector id="E1_A0B0_0" lane="A0B0_0" pos="259" freq="300" friendlyPos="true" file="output/detectors_output.xml"/>
	<e1Detector id="E1_A0B0_1" lane="A0B0_1" pos="259" freq="300" friendlyPos="true" file="output/detectors_output.xml"/>
	<e1Detector id="E1_A10A11_0" lane="A10A11_0" pos="209" freq="300" friendlyPos="true" file="output/detectors_output.xml"/>
	<e1Detector id="E1_A10A11_1" lane="A10A11_1" pos="209" freq="300" friendlyPos="true" file="output/detectors_output.xml"/>
	<e1Detector id="E1_A10A9_0" lane="A10A9_0" pos="209" freq="300" friendlyPos="true" file="output/detectors_output.xml"/>
	<e1Detector id="E1_A10A9_1" lane="A10A9_1" pos="209" freq="300" friendlyPos="true" file="output/detectors_output.xml"/>
	<e1Detector id="E1_A10B10_0" lane="A10B10_0" pos="259" freq="300" friendlyPos="true" file="output/detectors_output.xml"/>
	<e1Detector id="E1_A10B10_1" lane="A10B10_1" pos="259" freq="300" friendlyPos="true" file="output/detectors_output.xml"/>
	<e1Detector id="E1_A10left10_0" lane="A10left10_0" pos="170" freq="300" friendlyPos="true" file="output/detectors_output.xml"/>
	<e1Detector id="E1_A10left10_1" lane="A10left10_1" pos="170" freq="300" friendlyPos="true" file="output/detectors_output.xml"/>
	<e1Detector id="E1_A11A10_0" lane="A11A10_0" pos="209" freq="300" friendlyPos="true" file="output/detectors_output.xml"/>
	<e1Detector id="E1_A11A10_1" lane="A11A10_1" pos="209" freq="300" friendlyPos="true" file="output/detectors_output.xml"/>
	<e1Detector id="E1_A11B11_0" lane="A11B11_0" pos="259" freq="300" friendlyPos="true" file="output/detectors_output.xml"/>
	<e1Detector id="E1_A11B11_1" lane="A11B11_1" pos="259" freq="300" friendlyPos="true" file="output/detectors_output.xml"/>
	<e1Detector id="E1_A11left11_0" lane="A11left11_0" pos="170" freq="300" friendlyPos="true" file="output/detectors_output.xml"/>
	<e1Detector id="E1_A11left11_1" lane="A11left11_1" pos="170" freq="300" friendlyPos="true" file="output/detectors_output.xml"/>
	<e1Detector id="E1_A11top0_0" lane="A11top0_0" pos="170" freq="300" friendlyPos="true" file="output/detectors_output.xml"/>
	<e1Detector id="E1_A11top0_1" lane="A11top0_1" pos="170" freq="300" friendlyPos="true" file="output/detectors_output.xml"/>
	<e1Detector id="E1_A1A0_0" lane="A1A0_0" pos="209" freq="300" friendlyPos="true" file="output/detectors_output.xml"/>
	<e1Detector id="E1_A1A0_1" lane="A1A0_1" pos="209" freq="300" friendlyPos="true" file="output/detectors_output.xml"/>
	<e1Detector id="E1_A1A2_0" lane="A1A2_0" pos="209" freq="300" friendlyPos="true" file="output/detectors_output.xml"/>
	<e1Detector id="E1_A1A2_1" lane="A1A2_1" pos="209" freq="300" friendlyPos="true" file="output/detectors_output.xml"/>
	<e1Detector id="E1_A1B1_0" lane="A1B1_0" pos="259" freq="300" friendlyPos="true" file="output/detectors_output.xml"/>
	<e1Detector id="E1_A1B1_1" lane="A1B1_1" pos="259" freq="300" friendlyPos="true" file="output/detectors_output.xml"/>
	<e1Detector id="E1_A1left1_0" lane="A1left1_0" pos="170" freq="300" friendlyPos="true" file="output/detectors_output.xml"/>
	<e1Detector id="E1_A1left1_1" lane="A1left1_1" pos="170" freq="300" friendlyPos="true" file="output/detectors_output.xml"/>
	<e1Detector id="E1_A2A1_0" lane="A2A1_0" pos="209" freq="300" friendlyPos="true" file="output/detectors_output.xml"/>
	<e1Detector id="E1_A2A1_1" lane="A2A1_1" pos="209" freq="300" friendlyPos="true" file="output/detectors_output.xml"/>
	<e1Detector id="E1_A2A3_0" lane="A2A3_0" pos="209" freq="300" friendlyPos="true" file="output/detectors_output.xml"/>
	<e1Detector id="E1_A2A3_1" lane="A2A3_1" pos="209" freq="300" friendlyPos="true" file="output/detectors_output.xml"/>
	<e1Detector id="E1_A2B2_0" lane="A2B2_0" pos="259" freq="300" friendlyPos="true" file="output/detectors_output.xml"/>
	<e1Detector id="E1_A2B2_1" lane="A2B2_1" pos="259" freq="300" friendlyPos="true" file="output/detectors_output.xml"/>
	<e1Detector id="E1_A2left2_0" lane="A2left2_0" pos="170" freq="300" friendlyPos="true" file="output/detectors_output.xml"/>
	<e1Detector id="E1_A2left2_1" lane="A2left2_1" pos="170" freq="300" friendlyPos="true" file="output/detectors_output.xml"/>
	<e1Detector id="E1_A3A2_0" lane="A3A2_0" pos="209" freq="300" friendlyPos="true" file="output/detectors_output.xml"/>
	<e1Detector id="E1_A3A2_1" lane="A3A2_1" pos="209" freq="300" friendlyPos="true" file="output/detectors_output.xml"/>
	<e1Detector id="E1_A3A4_0" lane="A3A4_0" pos="209" freq="300" friendlyPos="true" file="output/detectors_output.xml"/>
	<e1Detector id="E1_A3A4_1" lane="A3A4_1" pos="209" freq="300" friendlyPos="true" file="output/detectors_output.xml"/>
	<e1Detector id="E1_A3B3_0" lane="A3B3_0" pos="259" freq="300" friendlyPos="true" file="output/detectors_output.xml"/>
	<e1Detector id="E1_A3B3_1" lane="A3B3_1" pos="259" freq="300" friendlyPos="true" file="output/detectors_output.xml"/>
	<e1Detector id="E1_A3left3_0" lane="A3left3_0" pos="170" freq="300" friendlyPos="true" file="output/detectors_output.xml"/>
	<e1Detector id="E1_A3left3_1" lane="A3left3_1" pos="170" freq="300" friendlyPos="true" file="output/detectors_output.xml"/>
	<e1Detector id="E1_A4A3_0" lane="A4A3_0" pos="209" freq="300" friendlyPos="true" file="output/detectors_output.xml"/>
	<e1Detector id="E1_A4A3_1" lane="A4A3_1" pos="209" freq="300" friendlyPos="true" file="output/detectors_output.xml"/>
	<e1Detector id="E1_A4B4_0" lane="A4B4_0" pos="259" freq="300" friendlyPos="true" file="output/detectors_output.xml"/>
	<e1Detector id="E1_A4B4_1" lane="A4B4_1" pos="259" freq="300" friendlyPos="true" file="output/detectors_output.xml"/>
	<e1Detector id="E1_A4left4_0" lane="A4left4_0" pos="170" freq="300" friendlyPos="true" file="output/detectors_output.xml"/>
	<e1Detector id="E1_A4left4_1" lane="A4left4_1" pos="170" freq="300" friendlyPos="true" file="output/detectors_output.xml"/>
	<e1Detector id="E1_A5A4_0" lane="A5A4_0" pos="209" freq="300" friendlyPos="true" file="output/detectors_output.xml"/>
	<e1Detector id="E1_A5A4_1" lane="A5A4_1" pos="209" freq="300" friendlyPos="true" file="output/detectors_output.xml"/>
	<e1Detector id="E1_A5B5_0" lane="A5B5_0" pos="259" freq="300" friendlyPos="true" file="output/detectors_output.xml"/>
	<e1Detector id="E1_A5B5_1" lane="A5B5_1" pos="259" freq="300" friendlyPos="true" file="output/detectors_output.xml"/>
	<e1Detector id="E1_A5left5_0" lane="A5left5_0" pos="170" freq="300" friendlyPos="true" file="output/detectors_output.xml"/>
	<e1Detector id="E1_A5left5_1" lane="A5left5_1" pos="170" freq="300" friendlyPos="true" file="output/detectors_output.xml"/>
	<e1Detector id="E1_A6A5_0" lane="A6A5_0" pos="209" freq="300" friendlyPos="true" file="output/detectors_output.xml"/>
	<e1Detector id="E1_A6A5_1" lane="A6A5_1" pos="209" freq="300" friendlyPos="true" file="output/detectors_output.xml"/>
	<e1Detector id="E1_A6B6_0" lane="A6B6_0" pos="259" freq="300" friendlyPos="true" file="output/detectors_output.xml"/>
	<e1Detector id="E1_A6B6_1" lane="A6B6_1" pos="259" freq="300" friendlyPos="true" file="output/detectors_output.xml"/>
	<e1Detector id="E1_A6left6_0" lane="A6left6_0" pos="170" freq="300" friendlyPos="true" file="output/detectors_output.xml"/>
	<e1Detector id="E1_A6left6_1" lane="A6left6_1" pos="170" freq="300" friendlyPos="true" file="output/detectors_output.xml"/>
	<e1Detector id="E1_A7A8_0" lane="A7A8_0" pos="209" freq="300" friendlyPos="true" file="output/detectors_output.xml"/>
	<e1Detector id="E1_A7A8_1" lane="A7A8_1" pos="209" freq="300" friendlyPos="true" file="output/detectors_output.xml"/>
	<e1Detector id="E1_A7B7_0" lane="A7B7_0" pos="259" freq="300" friendlyPos="true" file="output/detectors_output.xml"/>
	<e1Detector id="E1_A7B7_1" lane="A7B7_1" pos="259" freq="300" friendlyPos="true" file="output/detectors_output.xml"/>
	<e1Detector id="E1_A7left7_0" lane="A7left7_0" pos="170" freq="300" friendlyPos="true" file="output/detectors_output.xml"/>
	<e1Detector id="E1_A7left7_1" lane="A7left7_1" pos="170" freq="300" friendlyPos="true" file="output/detectors_output.xml"/>
	<e1Detector id="E1_A8B8_0" lane="A8B8_0" pos="259" freq="300" friendlyPos="true" file="output/detectors_output.xml"/>
	<e1Detector id="E1_A8B8_1" lane="A8B8_1" pos="259" freq="300" friendlyPos="true" file="output/detectors_output.xml"/>
	<e1Detector id="E1_A8left8_0" lane="A8left8_0" pos="170" freq="300" friendlyPos="true" file="output/detectors_output.xml"/>
	<e1Detector id="E1_A8left8_1" lane="A8left8_1" pos="170" freq="300" friendlyPos="true" file="output/detectors_output.xml"/>
	<e1Detector id="E1_A9B9_0" lane="A9B9_0" pos="259" freq="300" friendlyPos="true" file="output/detectors_output.xml"/>
	<e1Detector id="E1_A9B9_1" lane="A9B9_1" pos="259" freq="300" friendlyPos="true" file="output/detectors_output.xml"/>
	<e1Detector id="E1_A9left9_0" lane="A9left9_0" pos="170" freq="300" friendlyPos="true" file="output/detectors_output.xml"/>
	<e1Detector id="E1_A9left9_1" lane="A9left9_1" pos="170" freq="300" friendlyPos="true" file="output/detectors_output.xml"/>
	<e1Detector id="E1_B0B1_0" lane="B0B1_0" pos="209" freq="300" friendlyPos="true" file="output/detectors_output.xml"/>
	<e1Detector id="E1_B0B1_1" lane="B0B1_1" pos="209" freq="300" friendlyPos="true" file="output/detectors_output.xml"/>
	<e1Detector id="E1_B10A10_0" lane="B10A10_0" pos="259" freq="300" friendlyPos="true" file="output/detectors_output.xml"/>
	<e1Detector id="E1_B10A10_1" lane="B10A10_1" pos="259" freq="300" friendlyPos="true" file="output/detectors_output.xml"/>
	<e1Detector id="E1_B10B11_0" lane="B10B11_0" pos="209" freq="300" friendlyPos="true" file="output/detectors_output.xml"/>
	<e1Detector id="E1_B10B11_1" lane="B10B11_1" pos="209" freq="300" friendlyPos="true" file="output/detectors_output.xml"/>
	<e1Detector id="E1_B10B9_0" lane="B10B9_0" pos="209" freq="300" friendlyPos="true" file="output/detectors_output.xml"/>
	<e1Detector id="E1_B10B9_1" lane="B10B9_1" pos="209" freq="300" friendlyPos="true" file="output/detectors_output.xml"/>
	<e1Detector id="E1_B10C10_0" lane="B10C10_0" pos="259" freq="300" friendlyPos="true" file="output/detectors_output.xml"/>
	<e1Detector id="E1_B10C10_1" lane="B10C10_1" pos="259" freq="300" friendlyPos="true" file="output/detectors_output.xml"/>
	<e1Detector id="E1_B11B10_0" lane="B11B10_0" pos="209" freq="300" friendlyPos="true" file="output/detectors_output.xml"/>
	<e1Detector id="E1_B11B10_1" lane="B11B10_1" pos="209" freq="300" friendlyPos="true" file="output/detectors_output.xml"/>
	<e1Detector id="E1_B11top1_0" lane="B11top1_0" pos="170" freq="300" friendlyPos="true" file="output/detectors_output.xml"/>
	<e1Detector id="E1_B11top1_1" lane="B11top1_1" pos="170" freq="300" friendlyPos="true" file="output/detectors_output.xml"/>
	<e1Detector id="E1_B1A1_0" lane="B1A1_0" pos="259" freq="300" friendlyPos="true" file="output/detectors_output.xml"/>
	<e1Detector id="E1_B1A1_1" lane="B1A1_1" pos="259" freq="300" friendlyPos="true" file="output/detectors_output.xml"/>
	<e1Detector id="E1_B1B0_0" lane="B1B0_0" pos="209" freq="300" friendlyPos="true" file="output/detectors_output.xml"/>
	<e1Detector id="E1_B1B0_1" lane="B1B0_1" pos="209" freq="300" friendlyPos="true" file="output/detectors_output.xml"/>
	<e1Detector id="E1_B1B2_0" lane="B1B2_0" pos="209" freq="300" friendlyPos="true" file="output/detectors_output.xml"/>
	<e1Detector id="E1_B1B2_1" lane="B1B2_1" pos="209" freq="300" friendlyPos="true" file="output/detectors_output.xml"/>
	<e1Detector id="E1_B2A2_0" lane="B2A2_0" pos="259" freq="300" friendlyPos="true" file="output/detectors_output.xml"/>
	<e1Detector id="E1_B2A2_1" lane="B2A2_1" pos="259" freq="300" friendlyPos="true" file="output/detectors_output.xml"/>
	<e1Detector id="E1_B2B1_0" lane="B2B1_0" pos="209" freq="300" friendlyPos="true" file="output/detectors_output.xml"/>
	<e1Detector id="E1_B2B1_1" lane="B2B1_1" pos="209" freq="300" friendlyPos="true" file="output/detectors_output.xml"/>
	<e1Detector id="E1_B2B3_0" lane="B2B3_0" pos="209" freq="300" friendlyPos="true" file="output/detectors_output.xml"/>
	<e1Detector id="E1_B2B3_1" lane="B2B3_1" pos="209" freq="300" friendlyPos="true" file="output/detectors_output.xml"/>
	<e1Detector id="E1_B2C2_0" lane="B2C2_0" pos="259" freq="300" friendlyPos="true" file="output/detectors_output.xml"/>
	<e1Detector id="E1_B2C2_1" lane="B2C2_1" pos="259" freq="300" friendlyPos="true" file="output/detectors_output.xml"/>
	<e1Detector id="E1_B3A3_0" lane="B3A3_0" pos="259" freq="300" friendlyPos="true" file="output/detectors_output.xml"/>
	<e1Detector id="E1_B3A3_1" lane="B3A3_1" pos="259" freq="300" friendlyPos="true" file="output/detectors_output.xml"/>
	<e1Detector id="E1_B3B2_0" lane="B3B2_0" pos="209" freq="300" friendlyPos="true" file="output/detectors_output.xml"/>
	<e1Detector id="E1_B3B2_1" lane="B3B2_1" pos="209" freq="300" friendlyPos="true" file="output/detectors_output.xml"/>
	<e1Detector id="E1_B3B4_0" lane="B3B4_0" pos="209" freq="300" friendlyPos="true" file="output/detectors_output.xml"/>
	<e1Detector id="E1_B3B4_1" lane="B3B4_1" pos="209" freq="300" friendlyPos="true" file="output/detectors_output.xml"/>
	<e1Detector id="E1_B3C3_0" lane="B3C3_0" pos="259" freq="300" friendlyPos="true" file="output/detectors_output.xml"/>
	<e1Detector id="E1_B3C3_1" lane="B3C3_1" pos="259" freq="300" friendlyPos="true" file="output/detectors_output.xml"/>
	<e1Detector id="E1_B4B3_0" lane="B4B3_0" pos="209" freq="300" friendlyPos="true" file="output/detectors_output.xml"/>
	<e1Detector id="E1_B4B3_1" lane="B4B3_1" pos="209" freq="300" friendlyPos="true" file="output/detectors_output.xml"/>
	<e1Detector id="E1_B4B5_0" lane="B4B5_0" pos="209" freq="300" friendlyPos="true" file="output/detectors_output.xml"/>
	<e1Detector id="E1_B4B5_1" lane="B4B5_1" pos="209" freq="300" friendlyPos="true" file="output/detectors_output.xml"/>
	<e1Detector id="E1_B4C4_0" lane="B4C4_0" pos="259" freq="300" friendlyPos="true" file="output/detectors_output.xml"/>
	<e1Detector id="E1_B4C4_1" lane="B4C4_1" pos="259" freq="300" friendlyPos="true" file="output/detectors_output.xml"/>
	<e1Detector id="E1_B5A5_0" lane="B5A5_0" pos="259" freq="300" friendlyPos="true" file="output/detectors_output.xml"/>
	<e1Detector id="E1_B5A5_1" lane="B5A5_1" pos="259" freq="300" friendlyPos="true" file="output/detectors_output.xml"/>
	<e1Detector id="E1_B5B4_0" lane="B5B4_0" pos="209" freq="300" friendlyPos="true" file="output/detectors_output.xml"/>
	<e1Detector id="E1_B5B4_1" lane="B5B4_1" pos="209" freq="300" friendlyPos="true" file="output/detectors_output.xml"/>
	<e1Detector id="E1_B5B6_0" lane="B5B6_0" pos="209" freq="300" friendlyPos="true" file="output/detectors_output.xml"/>
	<e1Detector id="E1_B5B6_1" lane="B5B6_1" pos="209" freq="300" friendlyPos="true" file="output/detectors_output.xml"/>
	<e1Detector id="E1_B5C5_0" lane="B5C5_0" pos="259" freq="300" friendlyPos="true" file="output/detectors_output.xml"/>
	<e1Detector id="E1_B5C5_1" lane="B5C5_1" pos="259" freq="300" friendlyPos="true" file="output/detectors_output.xml"/>
	<e1Detector id="E1_B6A6_0" lane="B6A6_0" pos="259" freq="300" friendlyPos="true" file="output/detectors_output.xml"/>
	<e1Detector id="E1_B6A6_1" lane="B6A6_1" pos="259" freq="300" friendlyPos="true" file="output/detectors_output.xml"/>
	<e1Detector id="E1_B6B5_0" lane="B6B5_0" pos="209" freq="300" friendlyPos="true" file="output/detectors_output.xml"/>
	<e1Detector id="E1_B6B5_1" lane="B6B5_1" pos="209" freq="300" friendlyPos="true" file="output/detectors_output.xml"/>
	<e1Detector id="E1_B6B7_0" lane="B6B7_0" pos="209" freq="300" friendlyPos="true" file="output/detectors_output.xml"/>
	<e1Detector id="E1_B6B7_1" lane="B6B7_1" pos="209" freq="300" friendlyPos="true" file="output/detectors_output.xml"/>
	<e1Detector id="E1_B6C6_0" lane="B6C6_0" pos="259" freq="300" friendlyPos="true" file="output/detectors_output.xml"/>
	<e1Detector id="E1_B6C6_1" lane="B6C6_1" pos="259" freq="300" friendlyPos="true" file="output/detectors_output.xml"/>
	<e1Detector id="E1_B7A7_0" lane="B7A7_0" pos="259" freq="300" friendlyPos="true" file="output/detectors_output.xml"/>
	<e1Detector id="E1_B7A7_1" lane="B7A7_1" pos="259" freq="300" friendlyPos="true" file="output/detectors_output.xml"/>
	<e1Detector id="E1_B7B6_0" lane="B7B6_0" pos="209" freq="300" friendlyPos="true" file="output/detectors_output.xml"/>
	<e1Detector id="E1_B7B6_1" lane="B7B6_1" pos="209" freq="300" friendlyPos="true" file="output/detectors_output.xml"/>
	<e1Detector id="E1_B8B7_0" lane="B8B7_0" pos="209" freq="300" friendlyPos="true" file="output/detectors_output.xml"/>
	<e1Detector id="E1_B8B7_1" lane="B8B7_1" pos="209" freq="300" friendlyPos="true" file="output/detectors_output.xml"/>
	<e1Detector id="E1_B8B9_0" lane="B8B9_0" pos="209" freq="300" friendlyPos="true" file="output/detectors_output.xml"/>
	<e1Detector id="E1_B8B9_1" lane="B8B9_1" pos="209" freq="300" friendlyPos="true" file="output/detectors_output.xml"/>
	<e1Detector id="E1_B8C8_0" lane="B8C8_0" pos="259" freq="300" friendlyPos="true" file="output/detectors_output.xml"/>
	<e1Detector id="E1_B8C8_1" lane="B8C8_1" pos="259" freq="300" friendlyPos="true" file="output/detectors_output.xml"/>
	<e1Detector id="E1_B9A9_0" lane="B9A9_0" pos="259" freq="300" friendlyPos="true" file="output/detectors_output.xml"/>
	<e1Detector id="E1_B9A9_1" lane="B9A9_1" pos="259" freq="300" friendlyPos="true" file="output/detectors_output.xml"/>
	<e1Detector id="E1_B9B10_0" lane="B9B10_0" pos="209" freq="300" friendlyPos="true" file="output/detectors_output.xml"/>
	<e1Detector id="E1_B9B10_1" lane="B9B10_1" pos="209" freq="300" friendlyPos="true" file="output/detectors_output.xml"/>
	<e1Detector id="E1_B9B8_0" lane="B9B8_0" pos="209" freq="300" friendlyPos="true" file="output/detectors_output.xml"/>
	<e1Detector id="E1_B9B8_1" lane="B9B8_1" pos="209" freq="300" friendlyPos="true" file="output/detectors_output.xml"/>
	<e1Detector id="E1_C0B0_0" lane="C0B0_0" pos="259" freq="300" friendlyPos="true" file="output/detectors_output.xml"/>
	<e1Detector id="E1_C0B0_1" lane="C0B0_1" pos="259" freq="300" friendlyPos="true" file="output/detectors_output.xml"/>
	<e1Detector id="E1_C0C1_0" lane="C0C1_0" pos="209" freq="300" friendlyPos="true" file="output/detectors_output.xml"/>
	<e1Detector id="E1_C0C1_1" lane="C0C1_1" pos="209" freq="300" friendlyPos="true" file="output/detectors_output.xml"/>
	<e1Detector id="E1_C0D0_0" lane="C0D0_0" pos="259" freq="300" friendlyPos="true" file="output/detectors_output.xml"/>
	<e1Detector id="E1_C0D0_1" lane="C0D0_1" pos="259" freq="300" friendlyPos="true" file="output/detectors_output.xml"/>
	<e1Detector id="E1_C0bottom2_0" lane="C0bottom2_0" pos="170" freq="300" friendlyPos="true" file="output/detectors_output.xml"/>
	<e1Detector id="E1_C0bottom2_1" lane="C0bottom2_1" pos="170" freq="300" friendlyPos="true" file="output/detectors_output.xml"/>
	<e1Detector id="E1_C10B10_0" lane="C10B10_0" pos="259" freq="300" friendlyPos="true" file="output/detectors_output.xml"/>
	<e1Detector id="E1_C10B10_1" lane="C10B10_1" pos="259" freq="300" friendlyPos="true" file="output/detectors_output.xml"/>
	<e1Detector id="E1_C10C11_0" lane="C10C11_0" pos="209" freq="300" friendlyPos="true" file="output/detectors_output.xml"/>
	<e1Detector id="E1_C10C11_1" lane="C10C11_1" pos="209" freq="300" friendlyPos="true" file="output/detectors_output.xml"/>
	<e1Detector id="E1_C10C9_0" lane="C10C9_0" pos="209" freq="300" friendlyPos="true" file="output/detectors_output.xml"/>
	<e1Detector id="E1_C10C9_1" lane="C10C9_1" pos="209" freq="300" friendlyPos="true" file="output/detectors_output.xml"/>
	<e1Detector id="E1_C10D10_0" lane="C10D10_0" pos="259" freq="300" friendlyPos="true" file="output/detectors_output.xml"/>
	<e1Detector id="E1_C10D10_1" lane="C10D10_1" pos="259" freq="300" friendlyPos="true" file="output/detectors_output.xml"/>
	<e1Detector id="E1_C11B11_0" lane="C11B11_0" pos="259" freq="300" friendlyPos="true" file="output/detectors_output.xml"/>
	<e1Detector id="E1_C11B11_1" lane="C11B11_1" pos="259" freq="300" friendlyPos="true" file="output/detectors_output.xml"/>
	<e1Detector id="E1_C11D11_0" lane="C11D11_0" pos="259" freq="300" friendlyPos="true" file="output/detectors_output.xml"/>
	<e1Detector id="E1_C11D11_1" lane="C11D11_1" pos="259" freq="300" friendlyPos="true" file="output/detectors_output.xml"/>
	<e1Detector id="E1_C11top2_0" lane="C11top2_0" pos="170" freq="300" friendlyPos="true" file="output/detectors_output.xml"/>
	<e1Detector id="E1_C11top2_1" lane="C11top2_1" pos="170" freq="300" friendlyPos="true" file="output/detectors_output.xml"/>
	<e1Detector id="E1_C1B1_0" lane="C1B1_0" pos="259" freq="300" friendlyPos="true" file="output/detectors_output.xml"/>
	<e1Detector id="E1_C1B1_1" lane="C1B1_1" pos="259" freq="300" friendlyPos="true" file="output/detectors_output.xml"/>
	<e1Detector id="E1_C1C0_0" lane="C1C0_0" pos="209" freq="300" friendlyPos="true" file="output/detectors_output.xml"/>
	<e1Detector id="E1_C1C0_1" lane="C1C0_1" pos="209" freq="300" friendlyPos="true" file="output/detectors_output.xml"/>
	<e1Detector id="E1_C1C2_0" lane="C1C2_0" pos="209" freq="300" friendlyPos="true" file="output/detectors_output.xml"/>
	<e1Detector id="E1_C1C2_1" lane="C1C2_1" pos="209" freq="300" friendlyPos="true" file="output/detectors_output.xml"/>
	<e1Detector id="E1_C1D1_0" lane="C1D1_0" pos="259" freq="300" friendlyPos="true" file="output/detectors_output.xml"/>
	<e1Detector id="E1_C1D1_1" lane="C1D1_1" pos="259" freq="300" friendlyPos="true" file="output/detectors_output.xml"/>
	<e1Detector id="E1_C2B2_0" lane="C2B2_0" pos="259" freq="300" friendlyPos="true" file="output/detectors_output.xml"/>
	<e1Detector id="E1_C2B2_1" lane="C2B2_1" pos="259" freq="300" friendlyPos="true" file="output/detectors_output.xml"/>
	<e1Detector id="E1_C2C1_0" lane="C2C1_0" pos="209" freq="300" friendlyPos="true" file="output/detectors_output.xml"/>
	<e1Detector id="E1_C2C1_1" lane="C2C1_1" pos="209" freq="300" friendlyPos="true" file="output/detectors_output.xml"/>
	<e1Detector id="E1_C2C3_0" lane="C2C3_0" pos="209" freq="300" friendlyPos="true" file="output/detectors_output.xml"/>
	<e1Detector id="E1_C2C3_1" lane="C2C3_1" pos="209" freq="300" friendlyPos="true" file="output/detectors_output.xml"/>
	<e1Detector id="E1_C2D2_0" lane="C2D2_0" pos="259" freq="300" friendlyPos="true" file="output/detectors_output.xml"/>
	<e1Detector id="E1_C2D2_1" lane="C2D2_1" pos="259" freq="300" friendlyPos="true" file="output/detectors_output.xml"/>
	<e1Detector id="E1_C3B3_0" lane="C3B3_0" pos="259" freq="300" friendlyPos="true" file="output/detectors_output.xml"/>
	<e1Detector id="E1_C3B3_1" lane="C3B3_1" pos="259" freq="300" friendlyPos="true" file="output/detectors_output.xml"/>
	<e1Detector id="E1_C3D3_0" lane="C3D3_0" pos="259" freq="300" friendlyPos="true" file="output/detectors_output.xml"/>
	<e1Detector id="E1_C3D3_1" lane="C3D3_1" pos="259" freq="300" friendlyPos="true" file="output/detectors_output.xml"/>
	<e1Detector id="E1_C4B4_0" lane="C4B4_0" pos="259" freq="300" friendlyPos="true" file="output/detectors_output.xml"/>
	<e1Detector id="E1_C4B4_1" lane="C4B4_1" pos="259" freq="300" friendlyPos="true" file="output/detectors_output.xml"/>
	<e1Detector id="E1_C4C3_0" lane="C4C3_0" pos="209" freq="300" friendlyPos="true" file="output/detectors_output.xml"/>
	<e1Detector id="E1_C4C3_1" lane="C4C3_1" pos="209" freq="300" friendlyPos="true" file="output/detectors_output.xml"/>
	<e1Detector id="E1_C4D4_0" lane="C4D4_0" pos="259" freq="300" friendlyPos="true" file="output/detectors_output.xml"/>
	<e1Detector id="E1_C4D4_1" lane="C4D4_1" pos="259" freq="300" friendlyPos="true" file="output/detectors_output.xml"/>
	<e1Detector id="E1_C5B5_0" lane="C5B5_0" pos="259" freq="300" friendlyPos="true" file="output/detectors_output.xml"/>
	<e1Detector id="E1_C5B5_1" lane="C5B5_1" pos="259" freq="300" friendlyPos="true" file="output/detectors_output.xml"/>
	<e1Detector id="E1_C5C4_0" lane="C5C4_0" pos="209" freq="300" friendlyPos="true" file="output/detectors_output.xml"/>
	<e1Detector id="E1_C5C4_1" lane="C5C4_1" pos="209" freq="300" friendlyPos="true" file="output/detectors_output.xml"/>
	<e1Detector id="E1_C5C6_0" lane="C5C6_0" pos="209" freq="300" friendlyPos="true" file="output/detectors_output.xml"/>
	<e1Detector id="E1_C5C6_1" lane="C5C6_1" pos="209" freq="300" friendlyPos="true" file="output/detectors_output.xml"/>
	<e1Detector id="E1_C5D5_0" lane="C5D5_0" pos="259" freq="300" friendlyPos="true" file="output/detectors_output.xml"/>
	<e1Detector id="E1_C5D5_1" lane="C5D5_1" pos="259" freq="300" friendlyPos="true" file="output/detectors_output.xml"/>
	<e1Detector id="E1_C6C5_0" lane="C6C5_0" pos="209" freq="300" friendlyPos="true" file="output/detectors_output.xml"/>
	<e1Detector id="E1_C6C5_1" lane="C6C5_1" pos="209" freq="300" friendlyPos="true" file="output/detectors_output.xml"/>
	<e1Detector id="E1_C6C7_0" lane="C6C7_0" pos="209" freq="300" friendlyPos="true" file="output/detectors_output.xml"/>
	<e1Detector id="E1_C6C7_1" lane="C6C7_1" pos="209" freq="300" friendlyPos="true" file="output/detectors_output.xml"/>
	<e1Detector id="E1_C6D6_0" lane="C6D6_0" pos="259" freq="300" friendlyPos="true" file="output/detectors_output.xml"/>
	<e1Detector id="E1_C6D6_1" lane="C6D6_1" pos="259" freq="300" friendlyPos="true" file="output/detectors_output.xml"/>
	<e1Detector id="E1_C7B7_0" lane="C7B7_0" pos="259" freq="300" friendlyPos="true" file="output/detectors_output.xml"/>
	<e1Detector id="E1_C7B7_1" lane="C7B7_1" pos="259" freq="300" friendlyPos="true" file="output/detectors_output.xml"/>
	<e1Detector id="E1_C7C6_0" lane="C7C6_0" pos="209" freq="300" friendlyPos="true" file="output/detectors_output.xml"/>
	<e1Detector id="E1_C7C6_1" lane="C7C6_1" pos="209" freq="300" friendlyPos="true" file="output/detectors_output.xml"/>
	<e1Detector id="E1_C7D7_0" lane="C7D7_0" pos="259" freq="300" friendlyPos="true" file="output/detectors_output.xml"/>
	<e1Detector id="E1_C7D7_1" lane="C7D7_1" pos="259" freq="300" friendlyPos="true" file="output/detectors_output.xml"/>
	<e1Detector id="E1_C8B8_0" lane="C8B8_0" pos="259" freq="300" friendlyPos="true" file="output/detectors_output.xml"/>
	<e1Detector id="E1_C8B8_1" lane="C8B8_1" pos="259" freq="300" friendlyPos="true" file="output/detectors_output.xml"/>
	<e1Detector id="E1_C8C7_0" lane="C8C7_0" pos="209" freq="300" friendlyPos="true" file="output/detectors_output.xml"/>
	<e1Detector id="E1_C8C7_1" lane="C8C7_1" pos="209" freq="300" friendlyPos="true" file="output/detectors_output.xml"/>
	<e1Detector id="E1_C9B9_0" lane="C9B9_0" pos="259" freq="300" friendlyPos="true" file="output/detectors_output.xml"/>
	<e1Detector id="E1_C9B9_1" lane="C9B9_1" pos="259" freq="300" friendlyPos="true" file="output/detectors_output.xml"/>
	<e1Detector id="E1_C9C10_0" lane="C9C10_0" pos="209" freq="300" friendlyPos="true" file="output/detectors_output.xml"/>
	<e1Detector id="E1_C9C10_1" lane="C9C10_1" pos="209" freq="300" friendlyPos="true" file="output/detectors_output.xml"/>
	<e1Detector id="E1_C9C8_0" lane="C9C8_0" pos="209" freq="300" friendlyPos="true" file="output/detectors_output.xml"/>
	<e1Detector id="E1_C9C8_1" lane="C9C8_1" pos="209" freq="300" friendlyPos="true" file="output/detectors_output.xml"/>
	<e1Detector id="E1_C9D9_0" lane="C9D9_0" pos="259" freq="300" friendlyPos="true" file="output/detectors_output.xml"/>
	<e1Detector id="E1_C9D9_1" lane="C9D9_1" pos="259" freq="300" friendlyPos="true" file="output/detectors_output.xml"/>
	<e1Detector id="E1_D0C0_0" lane="D0C0_0" pos="259" freq="300" friendlyPos="true" file="output/detectors_output.xml"/>
	<e1Detector id="E1_D0C0_1" lane="D0C0_1" pos="259" freq="300" friendlyPos="true" file="output/detectors_output.xml"/>
	<e1Detector id="E1_D0D1_0" lane="D0D1_0" pos="209" freq="300" friendlyPos="true" file="output/detectors_output.xml"/>
	<e1Detector id="E1_D0D1_1" lane="D0D1_1" pos="209" freq="300" friendlyPos="true" file="output/detectors_output.xml"/>
	<e1Detector id="E1_D0E0_0" lane="D0E0_0" pos="259" freq="300" friendlyPos="true" file="output/detectors_output.xml"/>
	<e1Detector id="E1_D0E0_1" lane="D0E0_1" pos="259" freq="300" friendlyPos="true" file="output/detectors_output.xml"/>
	<e1Detector id="E1_D0bottom3_0" lane="D0bottom3_0" pos="170" freq="300" friendlyPos="true" file="output/detectors_output.xml"/>
	<e1Detector id="E1_D0bottom3_1" lane="D0bottom3_1" pos="170" freq="300" friendlyPos="true" file="output/detectors_output.xml"/>
	<e1Detector id="E1_D10C10_0" lane="D10C10_0" pos="259" freq="300" friendlyPos="true" file="output/detectors_output.xml"/>
	<e1Detector id="E1_D10C10_1" lane="D10C10_1" pos="259" freq="300" friendlyPos="true" file="output/detectors_output.xml"/>
	<e1Detector id="E1_D10D11_0" lane="D10D11_0" pos="209" freq="300" friendlyPos="true" file="output/detectors_output.xml"/>
	<e1Detector id="E1_D10D11_1" lane="D10D11_1" pos="209" freq="300" friendlyPos="true" file="output/detectors_output.xml"/>
	<e1Detector id="E1_D10D9_0" lane="D10D9_0" pos="209" freq="300" friendlyPos="true" file="output/detectors_output.xml"/>
	<e1Detector id="E1_D10D9_1" lane="D10D9_1" pos="209" freq="300" friendlyPos="true" file="output/detectors_output.xml"/>
	<e1Detector id="E1_D11D10_0" lane="D11D10_0" pos="209" freq="300" friendlyPos="true" file="output/detectors_output.xml"/>
	<e1Detector id="E1_D11D10_1" lane="D11D10_1" pos="209" freq="300" friendlyPos="true" file="output/detectors_output.xml"/>
	<e1Detector id="E1_D11top3_0" lane="D11top3_0" pos="170" freq="300" friendlyPos="true" file="output/detectors_output.xml"/>
	<e1Detector id="E1_D11top3_1" lane="D11top3_1" pos="170" freq="300" friendlyPos="true" file="output/detectors_output.xml"/>
	<e1Detector id="E1_D1C1_0" lane="D1C1_0" pos="259" freq="300" friendlyPos="true" file="output/detectors_output.xml"/>
	<e1Detector id="E1_D1C1_1" lane="D1C1_1" pos="259" freq="300" friendlyPos="true" file="output/detectors_output.xml"/>