<?xml version="1.0" encoding="UTF-8"?>

<!-- generated on 2024-06-29 14:19:45 by Eclipse SUMO netgenerate Version v1_20_0+0821-9e6088d63b6
<netgenerateConfiguration xmlns:xsi="http://www.w3.org/2001/XMLSchema-instance" xsi:noNamespaceSchemaLocation="http://sumo.dlr.de/xsd/netgenerateConfiguration.xsd">

    <grid_network>
        <grid value="true"/>
        <grid.x-number value="9"/>
        <grid.y-number value="12"/>
        <grid.x-length value="300"/>
        <grid.y-length value="250"/>
        <grid.attach-length value="200"/>
    </grid_network>

    <output>
        <output-file value="network.net.xml"/>
    </output>

    <building_defaults>
        <default.lanenumber value="2"/>
    </building_defaults>

    <tls_building>
        <tls.guess value="true"/>
        <tls.cycle.time value="60"/>
    </tls_building>

    <junctions>
        <no-turnarounds.tls value="true"/>
    </junctions>

</netgenerateConfiguration>
-->

<net version="1.20" junctionCornerDetail="5" limitTurnSpeed="5.50" xmlns:xsi="http://www.w3.org/2001/XMLSchema-instance" xsi:noNamespaceSchemaLocation="http://sumo.dlr.de/xsd/net_file.xsd">

    <location netOffset="0.00,0.00" convBoundary="0.00,0.00,2800.00,3150.00" origBoundary="0.00,0.00,2800.00,3150.00" projParameter="!"/>

    <edge id=":A0_0" function="internal">
        <lane id=":A0_0_0" index="0" speed="6.51" length="9.03" shape="195.20,210.40 194.85,207.95 193.80,206.20 192.05,205.15 189.60,204.80"/>
    </edge>
    <edge id=":A0_1" function="internal">
        <lane id=":A0_1_0" index="0" speed="13.89" length="20.80" shape="195.20,210.40 195.20,189.60"/>
        <lane id=":A0_1_1" index="1" speed="13.89" length="20.80" shape="198.40,210.40 198.40,189.60"/>
    </edge>
    <edge id=":A0_3" function="internal">
        <lane id=":A0_3_0" index="0" speed="9.26" length="5.01" shape="198.40,210.40 199.11,205.44"/>
    </edge>
    <edge id=":A0_16" function="internal">
        <lane id=":A0_16_0" index="0" speed="9.26" length="14.34" shape="199.11,205.44 199.15,205.15 201.40,201.40 205.15,199.15 210.40,198.40"/>
    </edge>
    <edge id=":A0_4" function="internal">
        <lane id=":A0_4_0" index="0" speed="6.51" length="9.03" shape="210.40,204.80 207.95,205.15 206.20,206.20 205.15,207.95 204.80,210.40"/>
    </edge>
    <edge id=":A0_5" function="internal">
        <lane id=":A0_5_0" index="0" speed="13.89" length="20.80" shape="210.40,204.80 189.60,204.80"/>
        <lane id=":A0_5_1" index="1" speed="13.89" length="20.80" shape="210.40,201.60 189.60,201.60"/>
    </edge>
    <edge id=":A0_7" function="internal">
        <lane id=":A0_7_0" index="0" speed="9.26" length="5.01" shape="210.40,201.60 205.44,200.89"/>
    </edge>
    <edge id=":A0_17" function="internal">
        <lane id=":A0_17_0" index="0" speed="9.26" length="14.34" shape="205.44,200.89 205.15,200.85 201.40,198.60 199.15,194.85 198.40,189.60"/>
    </edge>
    <edge id=":A0_8" function="internal">
        <lane id=":A0_8_0" index="0" speed="6.51" length="9.03" shape="204.80,189.60 205.15,192.05 206.20,193.80 207.95,194.85 210.40,195.20"/>
    </edge>
    <edge id=":A0_9" function="internal">
        <lane id=":A0_9_0" index="0" speed="13.89" length="20.80" shape="204.80,189.60 204.80,210.40"/>
        <lane id=":A0_9_1" index="1" speed="13.89" length="20.80" shape="201.60,189.60 201.60,210.40"/>
    </edge>
    <edge id=":A0_11" function="internal">
        <lane id=":A0_11_0" index="0" speed="9.26" length="5.01" shape="201.60,189.60 200.89,194.56"/>
    </edge>
    <edge id=":A0_18" function="internal">
        <lane id=":A0_18_0" index="0" speed="9.26" length="14.34" shape="200.89,194.56 200.85,194.85 198.60,198.60 194.85,200.85 189.60,201.60"/>
    </edge>
    <edge id=":A0_12" function="internal">
        <lane id=":A0_12_0" index="0" speed="6.51" length="9.03" shape="189.60,195.20 192.05,194.85 193.80,193.80 194.85,192.05 195.20,189.60"/>
    </edge>
    <edge id=":A0_13" function="internal">
        <lane id=":A0_13_0" index="0" speed="13.89" length="20.80" shape="189.60,195.20 210.40,195.20"/>
        <lane id=":A0_13_1" index="1" speed="13.89" length="20.80" shape="189.60,198.40 210.40,198.40"/>
    </edge>
    <edge id=":A0_15" function="internal">
        <lane id=":A0_15_0" index="0" speed="9.26" length="5.01" shape="189.60,198.40 194.56,199.11"/>
    </edge>
    <edge id=":A0_19" function="internal">
        <lane id=":A0_19_0" index="0" speed="9.26" length="14.34" shape="194.56,199.11 194.85,199.15 198.60,201.40 200.85,205.15 201.60,210.40"/>
    </edge>
    <edge id=":A1_0" function="internal">
        <lane id=":A1_0_0" index="0" speed="6.51" length="9.03" shape="195.20,460.40 194.85,457.95 193.80,456.20 192.05,455.15 189.60,454.80"/>
    </edge>
    <edge id=":A1_1" function="internal">
        <lane id=":A1_1_0" index="0" speed="13.89" length="20.80" shape="195.20,460.40 195.20,439.60"/>
        <lane id=":A1_1_1" index="1" speed="13.89" length="20.80" shape="198.40,460.40 198.40,439.60"/>
    </edge>
    <edge id=":A1_3" function="internal">
        <lane id=":A1_3_0" index="0" speed="9.26" length="5.01" shape="198.40,460.40 199.11,455.44"/>
    </edge>
    <edge id=":A1_16" function="internal">
        <lane id=":A1_16_0" index="0" speed="9.26" length="14.34" shape="199.11,455.44 199.15,455.15 201.40,451.40 205.15,449.15 210.40,448.40"/>
    </edge>
    <edge id=":A1_4" function="internal">
        <lane id=":A1_4_0" index="0" speed="6.51" length="9.03" shape="210.40,454.80 207.95,455.15 206.20,456.20 205.15,457.95 204.80,460.40"/>
    </edge>
    <edge id=":A1_5" function="internal">
        <lane id=":A1_5_0" index="0" speed="13.89" length="20.80" shape="210.40,454.80 189.60,454.80"/>
        <lane id=":A1_5_1" index="1" speed="13.89" length="20.80" shape="210.40,451.60 189.60,451.60"/>
    </edge>
    <edge id=":A1_7" function="internal">
        <lane id=":A1_7_0" index="0" speed="9.26" length="5.01" shape="210.40,451.60 205.44,450.89"/>
    </edge>
    <edge id=":A1_17" function="internal">
        <lane id=":A1_17_0" index="0" speed="9.26" length="14.34" shape="205.44,450.89 205.15,450.85 201.40,448.60 199.15,444.85 198.40,439.60"/>
    </edge>
    <edge id=":A1_8" function="internal">
        <lane id=":A1_8_0" index="0" speed="6.51" length="9.03" shape="204.80,439.60 205.15,442.05 206.20,443.80 207.95,444.85 210.40,445.20"/>
    </edge>
    <edge id=":A1_9" function="internal">
        <lane id=":A1_9_0" index="0" speed="13.89" length="20.80" shape="204.80,439.60 204.80,460.40"/>
        <lane id=":A1_9_1" index="1" speed="13.89" length="20.80" shape="201.60,439.60 201.60,460.40"/>
    </edge>
    <edge id=":A1_11" function="internal">
        <lane id=":A1_11_0" index="0" speed="9.26" length="5.01" shape="201.60,439.60 200.89,444.56"/>
    </edge>
    <edge id=":A1_18" function="internal">
        <lane id=":A1_18_0" index="0" speed="9.26" length="14.34" shape="200.89,444.56 200.85,444.85 198.60,448.60 194.85,450.85 189.60,451.60"/>
    </edge>
    <edge id=":A1_12" function="internal">
        <lane id=":A1_12_0" index="0" speed="6.51" length="9.03" shape="189.60,445.20 192.05,444.85 193.80,443.80 194.85,442.05 195.20,439.60"/>
    </edge>
    <edge id=":A1_13" function="internal">
        <lane id=":A1_13_0" index="0" speed="13.89" length="20.80" shape="189.60,445.20 210.40,445.20"/>
        <lane id=":A1_13_1" index="1" speed="13.89" length="20.80" shape="189.60,448.40 210.40,448.40"/>
    </edge>
    <edge id=":A1_15" function="internal">
        <lane id=":A1_15_0" index="0" speed="9.26" length="5.01" shape="189.60,448.40 194.56,449.11"/>
    </edge>
    <edge id=":A1_19" function="internal">
        <lane id=":A1_19_0" index="0" speed="9.26" length="14.34" shape="194.56,449.11 194.85,449.15 198.60,451.40 200.85,455.15 201.60,460.40"/>
    </edge>
    <edge id=":A10_0" function="internal">
        <lane id=":A10_0_0" index="0" speed="6.51" length="9.03" shape="195.20,2710.40 194.85,2707.95 193.80,2706.20 192.05,2705.15 189.60,2704.80"/>
    </edge>
    <edge id=":A10_1" function="internal">
        <lane id=":A10_1_0" index="0" speed="13.89" length="20.80" shape="195.20,2710.40 195.20,2689.60"/>
        <lane id=":A10_1_1" index="1" speed="13.89" length="20.80" shape="198.40,2710.40 198.40,2689.60"/>
    </edge>
    <edge id=":A10_3" function="internal">
        <lane id=":A10_3_0" index="0" speed="9.26" length="5.01" shape="198.40,2710.40 199.11,2705.44"/>
    </edge>
    <edge id=":A10_16" function="internal">
        <lane id=":A10_16_0" index="0" speed="9.26" length="14.34" shape="199.11,2705.44 199.15,2705.15 201.40,2701.40 205.15,2699.15 210.40,2698.40"/>
    </edge>
    <edge id=":A10_4" function="internal">
        <lane id=":A10_4_0" index="0" speed="6.51" length="9.03" shape="210.40,2704.80 207.95,2705.15 206.20,2706.20 205.15,2707.95 204.80,2710.40"/>
    </edge>
    <edge id=":A10_5" function="internal">
        <lane id=":A10_5_0" index="0" speed="13.89" length="20.80" shape="210.40,2704.80 189.60,2704.80"/>
        <lane id=":A10_5_1" index="1" speed="13.89" length="20.80" shape="210.40,2701.60 189.60,2701.60"/>
    </edge>
    <edge id=":A10_7" function="internal">
        <lane id=":A10_7_0" index="0" speed="9.26" length="5.01" shape="210.40,2701.60 205.44,2700.89"/>
    </edge>
    <edge id=":A10_17" function="internal">
        <lane id=":A10_17_0" index="0" speed="9.26" length="14.34" shape="205.44,2700.89 205.15,2700.85 201.40,2698.60 199.15,2694.85 198.40,2689.60"/>
    </edge>
    <edge id=":A10_8" function="internal">
        <lane id=":A10_8_0" index="0" speed="6.51" length="9.03" shape="204.80,2689.60 205.15,2692.05 206.20,2693.80 207.95,2694.85 210.40,2695.20"/>
    </edge>
    <edge id=":A10_9" function="internal">
        <lane id=":A10_9_0" index="0" speed="13.89" length="20.80" shape="204.80,2689.60 204.80,2710.40"/>
        <lane id=":A10_9_1" index="1" speed="13.89" length="20.80" shape="201.60,2689.60 201.60,2710.40"/>
    </edge>
    <edge id=":A10_11" function="internal">
        <lane id=":A10_11_0" index="0" speed="9.26" length="5.01" shape="201.60,2689.60 200.89,2694.56"/>
    </edge>
    <edge id=":A10_18" function="internal">
        <lane id=":A10_18_0" index="0" speed="9.26" length="14.34" shape="200.89,2694.56 200.85,2694.85 198.60,2698.60 194.85,2700.85 189.60,2701.60"/>
    </edge>
    <edge id=":A10_12" function="internal">
        <lane id=":A10_12_0" index="0" speed="6.51" length="9.03" shape="189.60,2695.20 192.05,2694.85 193.80,2693.80 194.85,2692.05 195.20,2689.60"/>
    </edge>
    <edge id=":A10_13" function="internal">
        <lane id=":A10_13_0" index="0" speed="13.89" length="20.80" shape="189.60,2695.20 210.40,2695.20"/>
        <lane id=":A10_13_1" index="1" speed="13.89" length="20.80" shape="189.60,2698.40 210.40,2698.40"/>
    </edge>
    <edge id=":A10_15" function="internal">
        <lane id=":A10_15_0" index="0" speed="9.26" length="5.01" shape="189.60,2698.40 194.56,2699.11"/>
    </edge>
    <edge id=":A10_19" function="internal">
        <lane id=":A10_19_0" index="0" speed="9.26" length="14.34" shape="194.56,2699.11 194.85,2699.15 198.60,2701.40 200.85,2705.15 201.60,2710.40"/>
    </edge>
    <edge id=":A11_0" function="internal">
        <lane id=":A11_0_0" index="0" speed="6.51" length="9.03" shape="195.20,2960.40 194.85,2957.95 193.80,2956.20 192.05,2955.15 189.60,2954.80"/>
    </edge>
    <edge id=":A11_1" function="internal">
        <lane id=":A11_1_0" index="0" speed="13.89" length="20.80" shape="195.20,2960.40 195.20,2939.60"/>
        <lane id=":A11_1_1" index="1" speed="13.89" length="20.80" shape="198.40,2960.40 198.40,2939.60"/>
    </edge>
    <edge id=":A11_3" function="internal">
        <lane id=":A11_3_0" index="0" speed="9.26" length="5.01" shape="198.40,2960.40 199.11,2955.44"/>
    </edge>
    <edge id=":A11_16" function="internal">
        <lane id=":A11_16_0" index="0" speed="9.26" length="14.34" shape="199.11,2955.44 199.15,2955.15 201.40,2951.40 205.15,2949.15 210.40,2948.40"/>
    </edge>
    <edge id=":A11_4" function="internal">
        <lane id=":A11_4_0" index="0" speed="6.51" length="9.03" shape="210.40,2954.80 207.95,2955.15 206.20,2956.20 205.15,2957.95 204.80,2960.40"/>
    </edge>
    <edge id=":A11_5" function="internal">
        <lane id=":A11_5_0" index="0" speed="13.89" length="20.80" shape="210.40,2954.80 189.60,2954.80"/>
        <lane id=":A11_5_1" index="1" speed="13.89" length="20.80" shape="210.40,2951.60 189.60,2951.60"/>
    </edge>
    <edge id=":A11_7" function="internal">
        <lane id=":A11_7_0" index="0" speed="9.26" length="5.01" shape="210.40,2951.60 205.44,2950.89"/>
    </edge>
    <edge id=":A11_17" function="internal">
        <lane id=":A11_17_0" index="0" speed="9.26" length="14.34" shape="205.44,2950.89 205.15,2950.85 201.40,2948.60 199.15,2944.85 198.40,2939.60"/>
    </edge>
    <edge id=":A11_8" function="internal">
        <lane id=":A11_8_0" index="0" speed="6.51" length="9.03" shape="204.80,2939.60 205.15,2942.05 206.20,2943.80 207.95,2944.85 210.40,2945.20"/>
    </edge>
    <edge id=":A11_9" function="internal">
        <lane id=":A11_9_0" index="0" speed="13.89" length="20.80" shape="204.80,2939.60 204.80,2960.40"/>
        <lane id=":A11_9_1" index="1" speed="13.89" length="20.80" shape="201.60,2939.60 201.60,2960.40"/>
    </edge>
    <edge id=":A11_11" function="internal">
        <lane id=":A11_11_0" index="0" speed="9.26" length="5.01" shape="201.60,2939.60 200.89,2944.56"/>
    </edge>
    <edge id=":A11_18" function="internal">
        <lane id=":A11_18_0" index="0" speed="9.26" length="14.34" shape="200.89,2944.56 200.85,2944.85 198.60,2948.60 194.85,2950.85 189.60,2951.60"/>
    </edge>
    <edge id=":A11_12" function="internal">
        <lane id=":A11_12_0" index="0" speed="6.51" length="9.03" shape="189.60,2945.20 192.05,2944.85 193.80,2943.80 194.85,2942.05 195.20,2939.60"/>
    </edge>
    <edge id=":A11_13" function="internal">
        <lane id=":A11_13_0" index="0" speed="13.89" length="20.80" shape="189.60,2945.20 210.40,2945.20"/>
        <lane id=":A11_13_1" index="1" speed="13.89" length="20.80" shape="189.60,2948.40 210.40,2948.40"/>
    </edge>
    <edge id=":A11_15" function="internal">
        <lane id=":A11_15_0" index="0" speed="9.26" length="5.01" shape="189.60,2948.40 194.56,2949.11"/>
    </edge>
    <edge id=":A11_19" function="internal">
        <lane id=":A11_19_0" index="0" speed="9.26" length="14.34" shape="194.56,2949.11 194.85,2949.15 198.60,2951.40 200.85,2955.15 201.60,2960.40"/>
    </edge>
    <edge id=":A2_0" function="internal">
        <lane id=":A2_0_0" index="0" speed="6.51" length="9.03" shape="195.20,710.40 194.85,707.95 193.80,706.20 192.05,705.15 189.60,704.80"/>
    </edge>
    <edge id=":A2_1" function="internal">
        <lane id=":A2_1_0" index="0" speed="13.89" length="20.80" shape="195.20,710.40 195.20,689.60"/>
        <lane id=":A2_1_1" index="1" speed="13.89" length="20.80" shape="198.40,710.40 198.40,689.60"/>
    </edge>
    <edge id=":A2_3" function="internal">
        <lane id=":A2_3_0" index="0" speed="9.26" length="5.01" shape="198.40,710.40 199.11,705.44"/>
    </edge>
    <edge id=":A2_16" function="internal">
        <lane id=":A2_16_0" index="0" speed="9.26" length="14.34" shape="199.11,705.44 199.15,705.15 201.40,701.40 205.15,699.15 210.40,698.40"/>
    </edge>
    <edge id=":A2_4" function="internal">
        <lane id=":A2_4_0" index="0" speed="6.51" length="9.03" shape="210.40,704.80 207.95,705.15 206.20,706.20 205.15,707.95 204.80,710.40"/>
    </edge>
    <edge id=":A2_5" function="internal">
        <lane id=":A2_5_0" index="0" speed="13.89" length="20.80" shape="210.40,704.80 189.60,704.80"/>
        <lane id=":A2_5_1" index="1" speed="13.89" length="20.80" shape="210.40,701.60 189.60,701.60"/>
    </edge>
    <edge id=":A2_7" function="internal">
        <lane id=":A2_7_0" index="0" speed="9.26" length="5.01" shape="210.40,701.60 205.44,700.89"/>
    </edge>
    <edge id=":A2_17" function="internal">
        <lane id=":A2_17_0" index="0" speed="9.26" length="14.34" shape="205.44,700.89 205.15,700.85 201.40,698.60 199.15,694.85 198.40,689.60"/>
    </edge>
    <edge id=":A2_8" function="internal">
        <lane id=":A2_8_0" index="0" speed="6.51" length="9.03" shape="204.80,689.60 205.15,692.05 206.20,693.80 207.95,694.85 210.40,695.20"/>
    </edge>
    <edge id=":A2_9" function="internal">
        <lane id=":A2_9_0" index="0" speed="13.89" length="20.80" shape="204.80,689.60 204.80,710.40"/>
        <lane id=":A2_9_1" index="1" speed="13.89" length="20.80" shape="201.60,689.60 201.60,710.40"/>
    </edge>
    <edge id=":A2_11" function="internal">
        <lane id=":A2_11_0" index="0" speed="9.26" length="5.01" shape="201.60,689.60 200.89,694.56"/>
    </edge>
    <edge id=":A2_18" function="internal">
        <lane id=":A2_18_0" index="0" speed="9.26" length="14.34" shape="200.89,694.56 200.85,694.85 198.60,698.60 194.85,700.85 189.60,701.60"/>
    </edge>
    <edge id=":A2_12" function="internal">
        <lane id=":A2_12_0" index="0" speed="6.51" length="9.03" shape="189.60,695.20 192.05,694.85 193.80,693.80 194.85,692.05 195.20,689.60"/>
    </edge>
    <edge id=":A2_13" function="internal">
        <lane id=":A2_13_0" index="0" speed="13.89" length="20.80" shape="189.60,695.20 210.40,695.20"/>
        <lane id=":A2_13_1" index="1" speed="13.89" length="20.80" shape="189.60,698.40 210.40,698.40"/>
    </edge>
    <edge id=":A2_15" function="internal">
        <lane id=":A2_15_0" index="0" speed="9.26" length="5.01" shape="189.60,698.40 194.56,699.11"/>
    </edge>
    <edge id=":A2_19" function="internal">
        <lane id=":A2_19_0" index="0" speed="9.26" length="14.34" shape="194.56,699.11 194.85,699.15 198.60,701.40 200.85,705.15 201.60,710.40"/>
    </edge>
    <edge id=":A3_0" function="internal">
        <lane id=":A3_0_0" index="0" speed="6.51" length="9.03" shape="195.20,960.40 194.85,957.95 193.80,956.20 192.05,955.15 189.60,954.80"/>
    </edge>
    <edge id=":A3_1" function="internal">
        <lane id=":A3_1_0" index="0" speed="13.89" length="20.80" shape="195.20,960.40 195.20,939.60"/>
        <lane id=":A3_1_1" index="1" speed="13.89" length="20.80" shape="198.40,960.40 198.40,939.60"/>
    </edge>
    <edge id=":A3_3" function="internal">
        <lane id=":A3_3_0" index="0" speed="9.26" length="5.01" shape="198.40,960.40 199.11,955.44"/>
    </edge>
    <edge id=":A3_16" function="internal">
        <lane id=":A3_16_0" index="0" speed="9.26" length="14.34" shape="199.11,955.44 199.15,955.15 201.40,951.40 205.15,949.15 210.40,948.40"/>
    </edge>
    <edge id=":A3_4" function="internal">
        <lane id=":A3_4_0" index="0" speed="6.51" length="9.03" shape="210.40,954.80 207.95,955.15 206.20,956.20 205.15,957.95 204.80,960.40"/>
    </edge>
    <edge id=":A3_5" function="internal">
        <lane id=":A3_5_0" index="0" speed="13.89" length="20.80" shape="210.40,954.80 189.60,954.80"/>
        <lane id=":A3_5_1" index="1" speed="13.89" length="20.80" shape="210.40,951.60 189.60,951.60"/>
    </edge>
    <edge id=":A3_7" function="internal">
        <lane id=":A3_7_0" index="0" speed="9.26" length="5.01" shape="210.40,951.60 205.44,950.89"/>
    </edge>
    <edge id=":A3_17" function="internal">
        <lane id=":A3_17_0" index="0" speed="9.26" length="14.34" shape="205.44,950.89 205.15,950.85 201.40,948.60 199.15,944.85 198.40,939.60"/>
    </edge>
    <edge id=":A3_8" function="internal">
        <lane id=":A3_8_0" index="0" speed="6.51" length="9.03" shape="204.80,939.60 205.15,942.05 206.20,943.80 207.95,944.85 210.40,945.20"/>
    </edge>
    <edge id=":A3_9" function="internal">
        <lane id=":A3_9_0" index="0" speed="13.89" length="20.80" shape="204.80,939.60 204.80,960.40"/>
        <lane id=":A3_9_1" index="1" speed="13.89" length="20.80" shape="201.60,939.60 201.60,960.40"/>
    </edge>
    <edge id=":A3_11" function="internal">
        <lane id=":A3_11_0" index="0" speed="9.26" length="5.01" shape="201.60,939.60 200.89,944.56"/>
    </edge>
    <edge id=":A3_18" function="internal">
        <lane id=":A3_18_0" index="0" speed="9.26" length="14.34" shape="200.89,944.56 200.85,944.85 198.60,948.60 194.85,950.85 189.60,951.60"/>
    </edge>
    <edge id=":A3_12" function="internal">
        <lane id=":A3_12_0" index="0" speed="6.51" length="9.03" shape="189.60,945.20 192.05,944.85 193.80,943.80 194.85,942.05 195.20,939.60"/>
    </edge>
    <edge id=":A3_13" function="internal">
        <lane id=":A3_13_0" index="0" speed="13.89" length="20.80" shape="189.60,945.20 210.40,945.20"/>
        <lane id=":A3_13_1" index="1" speed="13.89" length="20.80" shape="189.60,948.40 210.40,948.40"/>
    </edge>
    <edge id=":A3_15" function="internal">
        <lane id=":A3_15_0" index="0" speed="9.26" length="5.01" shape="189.60,948.40 194.56,949.11"/>
    </edge>
    <edge id=":A3_19" function="internal">
        <lane id=":A3_19_0" index="0" speed="9.26" length="14.34" shape="194.56,949.11 194.85,949.15 198.60,951.40 200.85,955.15 201.60,960.40"/>
    </edge>
    <edge id=":A4_0" function="internal">
        <lane id=":A4_0_0" index="0" speed="6.51" length="9.03" shape="195.20,1210.40 194.85,1207.95 193.80,1206.20 192.05,1205.15 189.60,1204.80"/>
    </edge>
    <edge id=":A4_1" function="internal">
        <lane id=":A4_1_0" index="0" speed="13.89" length="20.80" shape="195.20,1210.40 195.20,1189.60"/>
        <lane id=":A4_1_1" index="1" speed="13.89" length="20.80" shape="198.40,1210.40 198.40,1189.60"/>
    </edge>
    <edge id=":A4_3" function="internal">
        <lane id=":A4_3_0" index="0" speed="9.26" length="5.01" shape="198.40,1210.40 199.11,1205.44"/>
    </edge>
    <edge id=":A4_16" function="internal">
        <lane id=":A4_16_0" index="0" speed="9.26" length="14.34" shape="199.11,1205.44 199.15,1205.15 201.40,1201.40 205.15,1199.15 210.40,1198.40"/>
    </edge>
    <edge id=":A4_4" function="internal">
        <lane id=":A4_4_0" index="0" speed="6.51" length="9.03" shape="210.40,1204.80 207.95,1205.15 206.20,1206.20 205.15,1207.95 204.80,1210.40"/>
    </edge>
    <edge id=":A4_5" function="internal">
        <lane id=":A4_5_0" index="0" speed="13.89" length="20.80" shape="210.40,1204.80 189.60,1204.80"/>
        <lane id=":A4_5_1" index="1" speed="13.89" length="20.80" shape="210.40,1201.60 189.60,1201.60"/>
    </edge>
    <edge id=":A4_7" function="internal">
        <lane id=":A4_7_0" index="0" speed="9.26" length="5.01" shape="210.40,1201.60 205.44,1200.89"/>
    </edge>
    <edge id=":A4_17" function="internal">
        <lane id=":A4_17_0" index="0" speed="9.26" length="14.34" shape="205.44,1200.89 205.15,1200.85 201.40,1198.60 199.15,1194.85 198.40,1189.60"/>
    </edge>
    <edge id=":A4_8" function="internal">
        <lane id=":A4_8_0" index="0" speed="6.51" length="9.03" shape="204.80,1189.60 205.15,1192.05 206.20,1193.80 207.95,1194.85 210.40,1195.20"/>
    </edge>
    <edge id=":A4_9" function="internal">
        <lane id=":A4_9_0" index="0" speed="13.89" length="20.80" shape="204.80,1189.60 204.80,1210.40"/>
        <lane id=":A4_9_1" index="1" speed="13.89" length="20.80" shape="201.60,1189.60 201.60,1210.40"/>
    </edge>
    <edge id=":A4_11" function="internal">
        <lane id=":A4_11_0" index="0" speed="9.26" length="5.01" shape="201.60,1189.60 200.89,1194.56"/>
    </edge>
    <edge id=":A4_18" function="internal">
        <lane id=":A4_18_0" index="0" speed="9.26" length="14.34" shape="200.89,1194.56 200.85,1194.85 198.60,1198.60 194.85,1200.85 189.60,1201.60"/>
    </edge>
    <edge id=":A4_12" function="internal">
        <lane id=":A4_12_0" index="0" speed="6.51" length="9.03" shape="189.60,1195.20 192.05,1194.85 193.80,1193.80 194.85,1192.05 195.20,1189.60"/>
    </edge>
    <edge id=":A4_13" function="internal">
        <lane id=":A4_13_0" index="0" speed="13.89" length="20.80" shape="189.60,1195.20 210.40,1195.20"/>
        <lane id=":A4_13_1" index="1" speed="13.89" length="20.80" shape="189.60,1198.40 210.40,1198.40"/>
    </edge>
    <edge id=":A4_15" function="internal">
        <lane id=":A4_15_0" index="0" speed="9.26" length="5.01" shape="189.60,1198.40 194.56,1199.11"/>
    </edge>
    <edge id=":A4_19" function="internal">
        <lane id=":A4_19_0" index="0" speed="9.26" length="14.34" shape="194.56,1199.11 194.85,1199.15 198.60,1201.40 200.85,1205.15 201.60,1210.40"/>
    </edge>
    <edge id=":A5_0" function="internal">
        <lane id=":A5_0_0" index="0" speed="6.51" length="9.03" shape="195.20,1460.40 194.85,1457.95 193.80,1456.20 192.05,1455.15 189.60,1454.80"/>
    </edge>
    <edge id=":A5_1" function="internal">
        <lane id=":A5_1_0" index="0" speed="13.89" length="20.80" shape="195.20,1460.40 195.20,1439.60"/>
        <lane id=":A5_1_1" index="1" speed="13.89" length="20.80" shape="198.40,1460.40 198.40,1439.60"/>
    </edge>
    <edge id=":A5_3" function="internal">
        <lane id=":A5_3_0" index="0" speed="9.26" length="5.01" shape="198.40,1460.40 199.11,1455.44"/>
    </edge>
    <edge id=":A5_16" function="internal">
        <lane id=":A5_16_0" index="0" speed="9.26" length="14.34" shape="199.11,1455.44 199.15,1455.15 201.40,1451.40 205.15,1449.15 210.40,1448.40"/>
    </edge>
    <edge id=":A5_4" function="internal">
        <lane id=":A5_4_0" index="0" speed="6.51" length="9.03" shape="210.40,1454.80 207.95,1455.15 206.20,1456.20 205.15,1457.95 204.80,1460.40"/>
    </edge>
    <edge id=":A5_5" function="internal">
        <lane id=":A5_5_0" index="0" speed="13.89" length="20.80" shape="210.40,1454.80 189.60,1454.80"/>
        <lane id=":A5_5_1" index="1" speed="13.89" length="20.80" shape="210.40,1451.60 189.60,1451.60"/>
    </edge>
    <edge id=":A5_7" function="internal">
        <lane id=":A5_7_0" index="0" speed="9.26" length="5.01" shape="210.40,1451.60 205.44,1450.89"/>
    </edge>
    <edge id=":A5_17" function="internal">
        <lane id=":A5_17_0" index="0" speed="9.26" length="14.34" shape="205.44,1450.89 205.15,1450.85 201.40,1448.60 199.15,1444.85 198.40,1439.60"/>
    </edge>
    <edge id=":A5_8" function="internal">
        <lane id=":A5_8_0" index="0" speed="6.51" length="9.03" shape="204.80,1439.60 205.15,1442.05 206.20,1443.80 207.95,1444.85 210.40,1445.20"/>
    </edge>
    <edge id=":A5_9" function="internal">
        <lane id=":A5_9_0" index="0" speed="13.89" length="20.80" shape="204.80,1439.60 204.80,1460.40"/>
        <lane id=":A5_9_1" index="1" speed="13.89" length="20.80" shape="201.60,1439.60 201.60,1460.40"/>
    </edge>
    <edge id=":A5_11" function="internal">
        <lane id=":A5_11_0" index="0" speed="9.26" length="5.01" shape="201.60,1439.60 200.89,1444.56"/>
    </edge>
    <edge id=":A5_18" function="internal">
        <lane id=":A5_18_0" index="0" speed="9.26" length="14.34" shape="200.89,1444.56 200.85,1444.85 198.60,1448.60 194.85,1450.85 189.60,1451.60"/>
    </edge>
    <edge id=":A5_12" function="internal">
        <lane id=":A5_12_0" index="0" speed="6.51" length="9.03" shape="189.60,1445.20 192.05,1444.85 193.80,1443.80 194.85,1442.05 195.20,1439.60"/>
    </edge>
    <edge id=":A5_13" function="internal">
        <lane id=":A5_13_0" index="0" speed="13.89" length="20.80" shape="189.60,1445.20 210.40,1445.20"/>
        <lane id=":A5_13_1" index="1" speed="13.89" length="20.80" shape="189.60,1448.40 210.40,1448.40"/>
    </edge>
    <edge id=":A5_15" function="internal">
        <lane id=":A5_15_0" index="0" speed="9.26" length="5.01" shape="189.60,1448.40 194.56,1449.11"/>
    </edge>
    <edge id=":A5_19" function="internal">
        <lane id=":A5_19_0" index="0" speed="9.26" length="14.34" shape="194.56,1449.11 194.85,1449.15 198.60,1451.40 200.85,1455.15 201.60,1460.40"/>
    </edge>
    <edge id=":A6_0" function="internal">
        <lane id=":A6_0_0" index="0" speed="6.51" length="9.03" shape="195.20,1710.40 194.85,1707.95 193.80,1706.20 192.05,1705.15 189.60,1704.80"/>
    </edge>
    <edge id=":A6_1" function="internal">
        <lane id=":A6_1_0" index="0" speed="13.89" length="20.80" shape="195.20,1710.40 195.20,1689.60"/>
        <lane id=":A6_1_1" index="1" speed="13.89" length="20.80" shape="198.40,1710.40 198.40,1689.60"/>
    </edge>
    <edge id=":A6_3" function="internal">
        <lane id=":A6_3_0" index="0" speed="9.26" length="5.01" shape="198.40,1710.40 199.11,1705.44"/>
    </edge>
    <edge id=":A6_16" function="internal">
        <lane id=":A6_16_0" index="0" speed="9.26" length="14.34" shape="199.11,1705.44 199.15,1705.15 201.40,1701.40 205.15,1699.15 210.40,1698.40"/>
    </edge>
    <edge id=":A6_4" function="internal">
        <lane id=":A6_4_0" index="0" speed="6.51" length="9.03" shape="210.40,1704.80 207.95,1705.15 206.20,1706.20 205.15,1707.95 204.80,1710.40"/>
    </edge>
    <edge id=":A6_5" function="internal">
        <lane id=":A6_5_0" index="0" speed="13.89" length="20.80" shape="210.40,1704.80 189.60,1704.80"/>
        <lane id=":A6_5_1" index="1" speed="13.89" length="20.80" shape="210.40,1701.60 189.60,1701.60"/>
    </edge>
    <edge id=":A6_7" function="internal">
        <lane id=":A6_7_0" index="0" speed="9.26" length="5.01" shape="210.40,1701.60 205.44,1700.89"/>
    </edge>
    <edge id=":A6_17" function="internal">
        <lane id=":A6_17_0" index="0" speed="9.26" length="14.34" shape="205.44,1700.89 205.15,1700.85 201.40,1698.60 199.15,1694.85 198.40,1689.60"/>
    </edge>
    <edge id=":A6_8" function="internal">
        <lane id=":A6_8_0" index="0" speed="6.51" length="9.03" shape="204.80,1689.60 205.15,1692.05 206.20,1693.80 207.95,1694.85 210.40,1695.20"/>
    </edge>
    <edge id=":A6_9" function="internal">
        <lane id=":A6_9_0" index="0" speed="13.89" length="20.80" shape="204.80,1689.60 204.80,1710.40"/>
        <lane id=":A6_9_1" index="1" speed="13.89" length="20.80" shape="201.60,1689.60 201.60,1710.40"/>
    </edge>
    <edge id=":A6_11" function="internal">